12255404
  -OEChem-04291915553D

 23 23  0     1  0  0  0  0  0999 V2000
   -1.6569    1.8419   -0.8559 O   0  0  0  0  0  0  0  0  0  0  0  0
   -1.2391   -0.9324   -0.2366 C   0  0  2  0  0  0  0  0  0  0  0  0
    0.1867   -0.4254   -0.0850 C   0  0  0  0  0  0  0  0  0  0  0  0
   -2.2676   -0.0722    0.5183 C   0  0  0  0  0  0  0  0  0  0  0  0
   -1.3348   -2.3945    0.2151 C   0  0  0  0  0  0  0  0  0  0  0  0
    0.5643    0.1615    1.1061 C   0  0  0  0  0  0  0  0  0  0  0  0
    1.0620   -0.5664   -1.1432 C   0  0  0  0  0  0  0  0  0  0  0  0
   -2.3304    1.3659    0.0513 C   0  0  0  0  0  0  0  0  0  0  0  0
    1.8719    0.6270    1.2449 C   0  0  0  0  0  0  0  0  0  0  0  0
    2.3696   -0.1011   -1.0044 C   0  0  0  0  0  0  0  0  0  0  0  0
    2.7745    0.4956    0.1896 C   0  0  0  0  0  0  0  0  0  0  0  0
   -1.5029   -0.8908   -1.3029 H   0  0  0  0  0  0  0  0  0  0  0  0
   -3.2698   -0.4853    0.3454 H   0  0  0  0  0  0  0  0  0  0  0  0
   -2.1210   -0.0796    1.6027 H   0  0  0  0  0  0  0  0  0  0  0  0
   -1.0890   -2.5024    1.2777 H   0  0  0  0  0  0  0  0  0  0  0  0
   -2.3474   -2.7826    0.0611 H   0  0  0  0  0  0  0  0  0  0  0  0
   -0.6444   -3.0289   -0.3516 H   0  0  0  0  0  0  0  0  0  0  0  0
   -0.0956    0.2587    1.9597 H   0  0  0  0  0  0  0  0  0  0  0  0
    0.7560   -1.0314   -2.0755 H   0  0  0  0  0  0  0  0  0  0  0  0
   -3.0613    1.9942    0.5894 H   0  0  0  0  0  0  0  0  0  0  0  0
    2.1895    1.0860    2.1766 H   0  0  0  0  0  0  0  0  0  0  0  0
    3.0728   -0.2040   -1.8257 H   0  0  0  0  0  0  0  0  0  0  0  0
    3.7931    0.8565    0.2982 H   0  0  0  0  0  0  0  0  0  0  0  0
  1  8  2  0  0  0  0
  2  3  1  0  0  0  0
  2  4  1  0  0  0  0
  2  5  1  0  0  0  0
  2 12  1  0  0  0  0
  3  6  2  0  0  0  0
  3  7  1  0  0  0  0
  4  8  1  0  0  0  0
  4 13  1  0  0  0  0
  4 14  1  0  0  0  0
  5 15  1  0  0  0  0
  5 16  1  0  0  0  0
  5 17  1  0  0  0  0
  6  9  1  0  0  0  0
  6 18  1  0  0  0  0
  7 10  2  0  0  0  0
  7 19  1  0  0  0  0
  8 20  1  0  0  0  0
  9 11  2  0  0  0  0
  9 21  1  0  0  0  0
 10 11  1  0  0  0  0
 10 22  1  0  0  0  0
 11 23  1  0  0  0  0
M  END
> <PUBCHEM_COMPOUND_CID>
12255404

> <PUBCHEM_CONFORMER_RMSD>
0.6

> <PUBCHEM_CONFORMER_DIVERSEORDER>
1
7
4
9
5
3
2
6
8

> <PUBCHEM_MMFF94_PARTIAL_CHARGES>
16
1 -0.57
10 -0.15
11 -0.15
18 0.15
19 0.15
2 0.14
20 0.06
21 0.15
22 0.15
23 0.15
3 -0.14
4 0.06
6 -0.15
7 -0.15
8 0.45
9 -0.15

> <PUBCHEM_EFFECTIVE_ROTOR_COUNT>
3

> <PUBCHEM_PHARMACOPHORE_FEATURES>
3
1 1 acceptor
1 5 hydrophobe
6 3 6 7 9 10 11 rings

> <PUBCHEM_HEAVY_ATOM_COUNT>
11

> <PUBCHEM_ATOM_DEF_STEREO_COUNT>
1

> <PUBCHEM_ATOM_UDEF_STEREO_COUNT>
0

> <PUBCHEM_BOND_DEF_STEREO_COUNT>
0

> <PUBCHEM_BOND_UDEF_STEREO_COUNT>
0

> <PUBCHEM_ISOTOPIC_ATOM_COUNT>
0

> <PUBCHEM_COMPONENT_COUNT>
1

> <PUBCHEM_CACTVS_TAUTO_COUNT>
2

> <PUBCHEM_CONFORMER_ID>
00BB00AC00000001

> <PUBCHEM_MMFF94_ENERGY>
26.1329

> <PUBCHEM_FEATURE_SELFOVERLAP>
15.223

> <PUBCHEM_SHAPE_FINGERPRINT>
1 1 17977381638405158159
12138202 97 18343015597058058366
12423570 1 12036311544139803894
124424 183 18131062706760546954
12716758 59 18411705361294856370
12932764 1 18411708702979755850
13839132 238 18340204098549669684
15775835 57 18040718017611872961
16945 1 18408603699006170434
17844478 74 18128831904625344611
20201158 50 17632303345553373870
20653085 51 17970659357451491412
21040471 1 18337107865305452083
21922407 69 17677317446004565682
21930827 45 18413389843109920915
21947302 44 17917425380805804776
23402539 116 18340188795971577863
25 1 17701270122258958441
2748010 2 17560521827981905584
29004967 10 17059510641555506602
305870 269 18044931281676104683
5084963 1 18272375290667006171
54338 74 18116422842332730423
81228 2 18266459991578059963

> <PUBCHEM_SHAPE_MULTIPOLES>
220.51
3.8
1.73
1.17
0.74
0.42
-0.02
-0.89
0.05
-1.46
0.09
0.46
-0.13
0.62

> <PUBCHEM_SHAPE_SELFOVERLAP>
449.3

> <PUBCHEM_SHAPE_VOLUME>
127.5

> <PUBCHEM_COORDINATE_TYPE>
2
5
10

$$$$
